 Abaqus/Standard 2021                  DATE 11-Jan-2022 TIME 02:42:21
 SUMMARY OF JOB INFORMATION:
 STEP  INC ATT SEVERE EQUIL TOTAL  TOTAL      STEP       INC OF       DOF    IF
               DISCON ITERS ITERS  TIME/    TIME/LPF    TIME/LPF    MONITOR RIKS
               ITERS               FREQ
   1     1   1     1     6     7  1.00       1.00       1.000     
   2     1   1     0     5     5  1.10       0.100      0.1000    
   2     2   1     0     1     1  1.20       0.200      0.1000    
   2     3   1     0     1     1  1.30       0.300      0.1000    
   2     4   1     0     1     1  1.40       0.400      0.1000    
   2     5   1     0     1     1  1.50       0.500      0.1000    
   2     6   1     0     1     1  1.60       0.600      0.1000    
   2     7   1     0     1     1  1.70       0.700      0.1000    
   2     8   1     0     1     1  1.80       0.800      0.1000    
   2     9   1     0     1     1  1.90       0.900      0.1000    
   2    10   1     0     1     1  2.00       1.00       0.1000    
   3     1   1     0     5     5  2.10       0.100      0.1000    
   3     2   1     0     2     2  2.20       0.200      0.1000    
   3     3   1     0     2     2  2.30       0.300      0.1000    
   3     4   1     0     2     2  2.40       0.400      0.1000    
   3     5   1     0     2     2  2.50       0.500      0.1000    
   3     6   1     0     2     2  2.60       0.600      0.1000    
   3     7   1     0     2     2  2.70       0.700      0.1000    
   3     8   1     0     2     2  2.80       0.800      0.1000    
   3     9   1     0     2     2  2.90       0.900      0.1000    
   3    10   1     1     3     4  3.00       1.00       0.1000    
   4     1   1     2     4     6  3.10       0.100      0.1000    
   4     2   1     2     3     5  3.20       0.200      0.1000    
   4     3   1     0     4     4  3.30       0.300      0.1000    
   4     4   1     0     3     3  3.40       0.400      0.1000    
   4     5   1     0     3     3  3.50       0.500      0.1000    
   4     6   1     0     3     3  3.60       0.600      0.1000    
   4     7   1     2     2     4  3.70       0.700      0.1000    
   4     8   1     1     3     4  3.80       0.800      0.1000    
   4     9   1     0     2     2  3.90       0.900      0.1000    
   4    10   1     0     2     2  4.00       1.00       0.1000    
   5     1   1     5     2     7  4.10       0.100      0.1000    
   5     2   1     3    10    13  4.20       0.200      0.1000    
   5     3   1     1     8     9  4.30       0.300      0.1000    
   5     4   1     6     9    15  4.40       0.400      0.1000    
   5     5   1     1    10    11  4.50       0.500      0.1000    
   5     6   1     2    10    12  4.60       0.600      0.1000    
   5     7   1    20     0    20  4.60       0.600      0.1000    
                          
 THE ANALYSIS HAS NOT BEEN COMPLETED
